&aerosol_nl
 aer_drydep_list		= 'bc_a1', 'bc_a3', 'bc_a4', 'dst_a1', 'dst_a3', 'mom_a1', 'mom_a2', 'mom_a3', 'mom_a4', 'ncl_a1', 'ncl_a2',
         'ncl_a3', 'num_a1', 'num_a2', 'num_a3', 'num_a4', 'pom_a1', 'pom_a3', 'pom_a4', 'so4_a1', 'so4_a2', 'so4_a3',
         'soa_a1', 'soa_a2', 'soa_a3'
 aer_wetdep_list		= 'bc_a1', 'bc_a3', 'bc_a4', 'dst_a1', 'dst_a3', 'mom_a1', 'mom_a2', 'mom_a3', 'mom_a4', 'ncl_a1', 'ncl_a2',
         'ncl_a3', 'num_a1', 'num_a2', 'num_a3', 'num_a4', 'pom_a1', 'pom_a3', 'pom_a4', 'so4_a1', 'so4_a2', 'so4_a3',
         'soa_a1', 'soa_a2', 'soa_a3'
 seasalt_emis_scale		=  0.5    
 sol_factb_interstitial		= 0.1D0
 sol_facti_cloud_borne		= 1.0D0
 sol_factic_interstitial		= 0.4D0
 sscav_tuning		= .true.
/
&cam_inparm
 bnd_topo		= '/lustre/atlas1/cli900/world-shared/cesm/inputdata/atm/cam/topo/USGS-gtopo30_ne16np4_16xconsistentSGH.c20160612.nc'
 dtime		= 1800
 ncdata		= '/lustre/atlas1/cli900/world-shared/cesm/inputdata/atm/cam/inic/homme/cami_mam3_Linoz_ne16np4_L72_c160614.nc'
 phys_loadbalance		=  0 
 print_energy_errors		= .false.
 raytau0		=                      0.0    
 use_rad_dt_cosz		= .true.
/
&carma_nl
 carma_model		= 'none'
/
&chem_inparm
 chlorine_loading_file		= '/lustre/atlas1/cli900/world-shared/cesm/inputdata/atm/cam/chem/trop_mozart/ub/EESC_1850-2100_c090603.nc'
 chlorine_loading_fixed_ymd		= 20000101
 chlorine_loading_type		= 'FIXED'
 clim_soilw_file		= '/lustre/atlas1/cli900/world-shared/cesm/inputdata/atm/cam/chem/trop_mozart/dvel/clim_soilw.nc'
 depvel_file		= '/lustre/atlas1/cli900/world-shared/cesm/inputdata/atm/cam/chem/trop_mozart/dvel/depvel_monthly.nc'
 depvel_lnd_file		= '/lustre/atlas1/cli900/world-shared/cesm/inputdata/atm/cam/chem/trop_mozart/dvel/regrid_vegetation.nc'
 drydep_srf_file		= '/lustre/atlas1/cli900/world-shared/cesm/inputdata/atm/cam/chem/trop_mam/atmsrf_ne16np4_110920.nc'
 exo_coldens_file		= '/lustre/atlas1/cli900/world-shared/cesm/inputdata/atm/cam/chem/trop_mozart/phot/exo_coldens.nc'
 ext_frc_cycle_yr		= 2000
 ext_frc_specifier		= 'SO2         -> /lustre/atlas1/cli900/world-shared/cesm/inputdata/atm/cam/chem/trop_mozart_aero/emis/ar5_mam3_so2_elev_2000_c120315.nc',
         'SOAG        -> /lustre/atlas1/cli900/world-shared/cesm/inputdata/atm/cam/chem/trop_mozart_aero/emis/aces4bgc_nvsoa_soag_elev_2000_c160222.nc',
         'bc_a4       -> /lustre/atlas1/cli900/world-shared/cesm/inputdata/atm/cam/chem/trop_mozart_aero/emis/ar5_mam3_bc_elev_2000_c120315.nc',
         'num_a1      -> /lustre/atlas1/cli900/world-shared/cesm/inputdata/atm/cam/chem/trop_mozart_aero/emis/ar5_mam7_num_a1_elev_2000_c120716.nc',
         'num_a2      -> /lustre/atlas1/cli900/world-shared/cesm/inputdata/atm/cam/chem/trop_mozart_aero/emis/ar5_mam3_num_a2_elev_2000_c120315.nc',
         'num_a4      -> /lustre/atlas1/cli900/world-shared/cesm/inputdata/atm/cam/chem/trop_mozart_aero/emis/ar5_mam7_num_a3_elev_2000_c120716.nc',
         'pom_a4      -> /lustre/atlas1/cli900/world-shared/cesm/inputdata/atm/cam/chem/trop_mozart_aero/emis/ar5_mam3_pom_elev_2000_c130422.nc',
         'so4_a1      -> /lustre/atlas1/cli900/world-shared/cesm/inputdata/atm/cam/chem/trop_mozart_aero/emis/ar5_mam3_so4_a1_elev_2000_c120315.nc',
         'so4_a2      -> /lustre/atlas1/cli900/world-shared/cesm/inputdata/atm/cam/chem/trop_mozart_aero/emis/ar5_mam3_so4_a2_elev_2000_c120315.nc'
 ext_frc_type		= 'CYCLICAL'
 fstrat_list		= ' '
 linoz_data_cycle_yr		= 2000
 linoz_data_file		= 'linoz1800-2100_2006jpl_climo_1.9x2.5_26L_extended.c160204.nc'
 linoz_data_path		= '/lustre/atlas1/cli900/world-shared/cesm/inputdata/atm/cam/chem/trop_mozart/ub'
 linoz_data_type		= 'CYCLICAL'
 rsf_file		= '/lustre/atlas1/cli900/world-shared/cesm/inputdata/atm/waccm/phot/RSF_GT200nm_v3.0_c080811.nc'
 season_wes_file		= '/lustre/atlas1/cli900/world-shared/cesm/inputdata/atm/cam/chem/trop_mozart/dvel/season_wes.nc'
 srf_emis_cycle_yr		= 2000
 srf_emis_specifier		= 'DMS       -> /lustre/atlas1/cli900/world-shared/cesm/inputdata/atm/cam/chem/trop_mozart_aero/emis/aerocom_mam3_dms_surf_2000_c120315.nc',
         'SO2       -> /lustre/atlas1/cli900/world-shared/cesm/inputdata/atm/cam/chem/trop_mozart_aero/emis/ar5_mam3_so2_surf_2000_c120315.nc',
         'bc_a4     -> /lustre/atlas1/cli900/world-shared/cesm/inputdata/atm/cam/chem/trop_mozart_aero/emis/ar5_mam3_bc_surf_2000_c120315.nc',
         'num_a1    -> /lustre/atlas1/cli900/world-shared/cesm/inputdata/atm/cam/chem/trop_mozart_aero/emis/ar5_mam7_num_a1_surf_2000_c120716.nc',
         'num_a2    -> /lustre/atlas1/cli900/world-shared/cesm/inputdata/atm/cam/chem/trop_mozart_aero/emis/ar5_mam3_num_a2_surf_2000_c120315.nc',
         'num_a4    -> /lustre/atlas1/cli900/world-shared/cesm/inputdata/atm/cam/chem/trop_mozart_aero/emis/ar5_mam7_num_a3_surf_2000_c120716.nc',
         'pom_a4    -> /lustre/atlas1/cli900/world-shared/cesm/inputdata/atm/cam/chem/trop_mozart_aero/emis/ar5_mam3_pom_surf_2000_c130422.nc',
         'so4_a1    -> /lustre/atlas1/cli900/world-shared/cesm/inputdata/atm/cam/chem/trop_mozart_aero/emis/ar5_mam3_so4_a1_surf_2000_c120315.nc',
         'so4_a2    -> /lustre/atlas1/cli900/world-shared/cesm/inputdata/atm/cam/chem/trop_mozart_aero/emis/ar5_mam3_so4_a2_surf_2000_c120315.nc'
 srf_emis_type		= 'CYCLICAL'
 tracer_cnst_cycle_yr		= 2000
 tracer_cnst_datapath		= '/lustre/atlas1/cli900/world-shared/cesm/inputdata/atm/cam/chem/trop_mozart_aero/oxid'
 tracer_cnst_file		= 'oxid_1.9x2.5_L26_1850-2005_c091123.nc'
 tracer_cnst_filelist		= 'oxid_1.9x2.5_L26_clim_list.c090805.txt'
 tracer_cnst_specifier		= 'cnst_O3:O3','OH','NO3','HO2'
 tracer_cnst_type		= 'CYCLICAL'
 xactive_prates		= .false.
 xs_long_file		= '/lustre/atlas1/cli900/world-shared/cesm/inputdata/atm/waccm/phot/temp_prs_GT200nm_JPL10_c130206.nc'
/
&chem_surfvals_nl
 ch4vmr		= 1760.0e-9
 co2vmr		= 367.0e-6
 f11vmr		= 653.45e-12
 f12vmr		= 535.0e-12
 flbc_list		= ' '
 n2ovmr		= 316.0e-9
/
&cldfrc2m_nl
 cldfrc2m_rhmaxi		=   1.0D0  
 cldfrc2m_rhmini		=   0.80D0  
/
&cldfrc_nl
 cldfrc_dp1		=          0.05D0 
 cldfrc_dp2		=  500.0D0 
 cldfrc_freeze_dry		= .true.
 cldfrc_ice		= .true.
 cldfrc_icecrit		=  0.93D0 
 cldfrc_iceopt		=  5 
 cldfrc_premib		=  700.0D2 
 cldfrc_premit		=  25000.0D0 
 cldfrc_rhminh		=  0.800D0 
 cldfrc_rhminl		=  0.950D0 
 cldfrc_rhminl_adj_land		=  0.100D0 
 cldfrc_sh1		=  0.04D0 
 cldfrc_sh2		=  500.0D0 
/
&cldsed_nl
 cldsed_ice_stokes_fac		=  1.0D0 
/
&cldwat_nl
 cldwat_conke		=   5.0e-6  
 cldwat_icritc		=  18.0e-6  
 cldwat_icritw		=   2.0e-4  
 cldwat_r3lcrit		=   10.0e-6  
/
&clubb_his_nl
 clubb_history		=  .false. 
 clubb_rad_history		=  .false. 
/
&clubb_param_nl
 clubb_c2rt		=          0.75D0 
 clubb_wpxp_l_thresh		=  60.0D0   
/
&clubbpbl_diff_nl
 clubb_cloudtop_cooling		=  .false. 
 clubb_expldiff		=  .true.  
 clubb_ice_deep		=      20.e-6 
 clubb_ice_sh		=        50.e-6 
 clubb_liq_deep		=      8.e-6  
 clubb_liq_sh		=        10.e-6 
 clubb_rainevap_turb		=  .false.  
 clubb_rnevap_effic		=  1.2D0   
 clubb_stabcorrect		=  .false. 
 clubb_timestep		=  300.0D0 
 clubb_tk1		=  268.15D0  
 clubb_tk2		=  238.15D0  
 relvar_fix		=  .false.  
/
&ctl_nl
 hypervis_order		=      2 
 hypervis_scaling		=  0 
 hypervis_subcycle		=   3 
 hypervis_subcycle_q		=  1 
 integration		= "explicit"
 mesh_file		= '/dev/null'
 nu		=   7.0e15 
 nu_div		=  15.5e15 
 nu_p		=   7.0e15 
 nu_q		=  -1.0 
 nu_top		=  2.5e5 
 qsplit		=  1 
 rsplit		=   3 
 se_ftype		=  0 
 se_limiter_option		=  8 
 se_ne		= 16
 se_nsplit		=   1 
 se_partmethod		=  4 
 se_phys_tscale		=  0 
 se_topology		= "cube"
 statefreq		=  480 
 tstep_type		=  5 
 vert_remap_q_alg		=  1 
 vthreads		=  1 
/
&dust_nl
 dust_emis_fact		=      0.40D0 
 soil_erod_file		= '/lustre/atlas1/cli900/world-shared/cesm/inputdata/atm/cam/dst/dst_1.9x2.5_c090203.nc'
/
&gw_drag_nl
 effgw_beres		= 0.1D0
 effgw_cm		= 1.D0
 effgw_oro		=           0.25   
 fcrit2		= 1.0
 frontgfc		= 1.25D-15
 gw_dc		= 2.5D0
 gw_drag_file		= '/lustre/atlas1/cli900/world-shared/cesm/inputdata/atm/waccm/gw/newmfspectra40_dc25.nc'
 pgwv		= 32
 tau_0_ubc		= .true.
 taubgnd		= 1.5D-3
/
&hetfrz_classnuc_nl
 hist_hetfrz_classnuc		= .true.
/
&hkconv_nl
 hkconv_c0		=   1.0e-4 
 hkconv_cmftau		=  1800.0D0 
/
&mam_mom_nl
 mam_mom_cycle_yr		= 1
 mam_mom_datapath		= '/lustre/atlas1/cli900/world-shared/cesm/inputdata/atm/cam/chem/trop_mam/marine_BGC/'
 mam_mom_datatype		= 'CYCLICAL'
 mam_mom_filename		= 'monthly_macromolecules_0.1deg_bilinear_latlon_year01_merge_date.nc'
 mam_mom_fixed_tod		= 0
 mam_mom_fixed_ymd		= 0
 mam_mom_mixing_state		= 2
 mam_mom_specifier		= 'chla:CHL1','mpoly:TRUEPOLYC','mprot:TRUEPROTC','mlip:TRUELIPC'
/
&micro_mg_nl
 ice_sed_ai		=          500.0  
 micro_mg_berg_eff_factor		=   0.1D0    
 micro_mg_dcs		=                    195.D-6    
 micro_mg_dcs_tdep		= .true.
 micro_mg_num_steps		=                    1          
 micro_mg_precip_frac_method		= 'in_cloud'
 micro_mg_sub_version		=                                  0          
 micro_mg_version		=                                  2          
 microp_uniform		= .false.
/
&microp_aero_nl
 microp_aero_wsub_scheme		= 1
/
&modal_aer_opt_nl
 water_refindex_file		= '/lustre/atlas1/cli900/world-shared/cesm/inputdata/atm/cam/physprops/water_refindex_rrtmg_c080910.nc'
/
&nucleate_ice_nl
 nucleate_ice_subgrid		= 1.2D0
 so4_sz_thresh_icenuc		= 0.1e-6 
 use_preexisting_ice		= .false.
/
&phys_ctl_nl
 cam_chempkg		= 'linoz_mam4_resus_mom_soag'
 cam_physpkg		= 'cam5'
 cld_macmic_num_steps		=  6 
 cld_sed		=   1.0D0       
 conv_water_in_rad		=  1 
 convproc_do_aer		= .true.
 convproc_do_gas		= .false.
 convproc_method_activate		= 2
 deep_scheme		= 'ZM'
 demott_ice_nuc		= .true.
 do_clubb_sgs		=  .true.  
 do_tms		=  .true.  
 eddy_scheme		= 'CLUBB_SGS'
 fix_g1_err_ndrop		= .true.
 history_aero_optics		= .true.
 history_aerosol		= .true.
 history_amwg		= .true.
 history_budget		=                .false.  
 history_clubb		=       .true.   
 history_eddy		=                  .false.  
 history_vdiag		=                 .false.  
 history_waccm		=                 .false.  
 liqcf_fix		= .true.
 macrop_scheme		= 'CLUBB_SGS'
 mam_amicphys_optaa		= 1
 mg_prc_coeff_fix		=   .false.     
 micro_do_icesupersat		=  .false. 
 micro_mg_accre_enhan_fac		=  1.0D0                                 
 microp_scheme		= 'MG'
 n_so4_monolayers_pcage		=  3.0D0 
 prc_coef1		=   1350.0      
 prc_exp		=   2.47        
 prc_exp1		=   -1.79       
 radiation_scheme		= 'rrtmg'
 regen_fix		= .true.
 resus_fix		= .true.
 rrtmg_temp_fix		=  .false.      
 shallow_scheme		= 'CLUBB_SGS'
 srf_flux_avg		= 0
 ssalt_tuning		= .true.
 state_debug_checks		= .true.
 use_gw_convect		= .true.
 use_gw_front		= .true.
 use_gw_oro		= .true.
 use_hetfrz_classnuc		= .true.
 use_subcol_microp		= .false.
 waccmx_opt		= 'off'
/
&physconst_nl
 tms_orocnst		=  1.0D0   
 tms_z0fac		=  0.075D0 
/
&rad_cnst_nl
 icecldoptics		= 'mitchell'
 iceopticsfile		= '/lustre/atlas1/cli900/world-shared/cesm/inputdata/atm/cam/physprops/iceoptics_c080917.nc'
 liqcldoptics		= 'gammadist'
 liqopticsfile		= '/lustre/atlas1/cli900/world-shared/cesm/inputdata/atm/cam/physprops/F_nwvl200_mu20_lam50_res64_t298_c080428.nc'
 mode_defs		= 'mam4_mode1:accum:=',
         'A:num_a1:N:num_c1:num_mr:+',
         'A:so4_a1:N:so4_c1:sulfate:/lustre/atlas1/cli900/world-shared/cesm/inputdata/atm/cam/physprops/sulfate_rrtmg_c080918.nc:+',
         'A:pom_a1:N:pom_c1:p-organic:/lustre/atlas1/cli900/world-shared/cesm/inputdata/atm/cam/physprops/ocpho_rrtmg_c130709.nc:+',
         'A:soa_a1:N:soa_c1:s-organic:/lustre/atlas1/cli900/world-shared/cesm/inputdata/atm/cam/physprops/ocphi_rrtmg_c100508.nc:+',
         'A:bc_a1:N:bc_c1:black-c:/lustre/atlas1/cli900/world-shared/cesm/inputdata/atm/cam/physprops/bcpho_rrtmg_c100508.nc:+',
         'A:dst_a1:N:dst_c1:dust:/lustre/atlas1/cli900/world-shared/cesm/inputdata/atm/cam/physprops/dust4_rrtmg_c090521.nc:+',
         'A:ncl_a1:N:ncl_c1:seasalt:/lustre/atlas1/cli900/world-shared/cesm/inputdata/atm/cam/physprops/ssam_rrtmg_c100508.nc:+',
         'A:mom_a1:N:mom_c1:m-organic:/lustre/atlas1/cli900/world-shared/cesm/inputdata/atm/cam/physprops/poly_rrtmg_c130816.nc',
         'mam4_mode2:aitken:=',
         'A:num_a2:N:num_c2:num_mr:+',
         'A:so4_a2:N:so4_c2:sulfate:/lustre/atlas1/cli900/world-shared/cesm/inputdata/atm/cam/physprops/sulfate_rrtmg_c080918.nc:+',
         'A:soa_a2:N:soa_c2:s-organic:/lustre/atlas1/cli900/world-shared/cesm/inputdata/atm/cam/physprops/ocphi_rrtmg_c100508.nc:+',
         'A:ncl_a2:N:ncl_c2:seasalt:/lustre/atlas1/cli900/world-shared/cesm/inputdata/atm/cam/physprops/ssam_rrtmg_c100508.nc:+',
         'A:mom_a2:N:mom_c2:m-organic:/lustre/atlas1/cli900/world-shared/cesm/inputdata/atm/cam/physprops/poly_rrtmg_c130816.nc',
         'mam4_mode3:coarse:=',
         'A:num_a3:N:num_c3:num_mr:+',
         'A:dst_a3:N:dst_c3:dust:/lustre/atlas1/cli900/world-shared/cesm/inputdata/atm/cam/physprops/dust4_rrtmg_c090521.nc:+',
         'A:ncl_a3:N:ncl_c3:seasalt:/lustre/atlas1/cli900/world-shared/cesm/inputdata/atm/cam/physprops/ssam_rrtmg_c100508.nc:+',
         'A:so4_a3:N:so4_c3:sulfate:/lustre/atlas1/cli900/world-shared/cesm/inputdata/atm/cam/physprops/sulfate_rrtmg_c080918.nc:+',
         'A:bc_a3:N:bc_c3:black-c:/lustre/atlas1/cli900/world-shared/cesm/inputdata/atm/cam/physprops/bcpho_rrtmg_c100508.nc:+',
         'A:pom_a3:N:pom_c3:p-organic:/lustre/atlas1/cli900/world-shared/cesm/inputdata/atm/cam/physprops/ocpho_rrtmg_c130709.nc:+',
         'A:soa_a3:N:soa_c3:s-organic:/lustre/atlas1/cli900/world-shared/cesm/inputdata/atm/cam/physprops/ocphi_rrtmg_c100508.nc:+',
         'A:mom_a3:N:mom_c3:m-organic:/lustre/atlas1/cli900/world-shared/cesm/inputdata/atm/cam/physprops/poly_rrtmg_c130816.nc',
         'mam4_mode4:primary_carbon:=',
         'A:num_a4:N:num_c4:num_mr:+',
         'A:pom_a4:N:pom_c4:p-organic:/lustre/atlas1/cli900/world-shared/cesm/inputdata/atm/cam/physprops/ocpho_rrtmg_c130709.nc:+',
         'A:bc_a4:N:bc_c4:black-c:/lustre/atlas1/cli900/world-shared/cesm/inputdata/atm/cam/physprops/bcpho_rrtmg_c100508.nc:+',
         'A:mom_a4:N:mom_c4:m-organic:/lustre/atlas1/cli900/world-shared/cesm/inputdata/atm/cam/physprops/poly_rrtmg_c130816.nc'
 rad_climate		= 'A:Q:H2O', 'N:O2:O2',
         'N:CO2:CO2', 'A:O3:O3',
         'N:N2O:N2O', 'N:CH4:CH4',
         'N:CFC11:CFC11', 'N:CFC12:CFC12',
         'M:mam4_mode1:/lustre/atlas1/cli900/world-shared/cesm/inputdata/atm/cam/physprops/mam4_mode1_rrtmg_c130628.nc', 'M:mam4_mode2:/lustre/atlas1/cli900/world-shared/cesm/inputdata/atm/cam/physprops/mam4_mode2_rrtmg_c130628.nc',
         'M:mam4_mode3:/lustre/atlas1/cli900/world-shared/cesm/inputdata/atm/cam/physprops/mam4_mode3_rrtmg_c130628.nc', 'M:mam4_mode4:/lustre/atlas1/cli900/world-shared/cesm/inputdata/atm/cam/physprops/mam4_mode4_rrtmg_c130628.nc'
/
&ref_pres_nl
 clim_modal_aero_top_press		=  1.D-4 
 do_molec_press		=  0.1D0 
 molec_diff_bot_press		=  50.D0 
 trop_cloud_top_press		=       1.D2 
/
&solar_inparm
 solar_data_file		= '/lustre/atlas1/cli900/world-shared/cesm/inputdata/atm/cam/solar/solar_ave_sc19-sc23.c090810.nc'
 solar_htng_spctrl_scl		= .true.
/
&subcol_nl
 subcol_scheme		= 'off'
/
&tropopause_nl
 tropopause_climo_file		= '/lustre/atlas1/cli900/world-shared/cesm/inputdata/atm/cam/chem/trop_mozart/ub/clim_p_trop.nc'
/
&uwshcu_nl
 uwshcu_rpen		=    5.0 
/
&vert_diff_nl
 diff_cnsrv_mass_check		=  .false. 
 do_iss		=  .true.  
 eddy_lbulk_max		= 40.D3
 eddy_leng_max		= 40.D3
 eddy_max_bot_pressure		= 100.D3
 eddy_moist_entrain_a2l		= 30.D0
 kv_freetrop_scale		= 1.D0
 kv_top_pressure		= 0.D0
 kv_top_scale		= 1.D0
/
&wetdep_inparm
 gas_wetdep_list		= 'H2O2','H2SO4','SO2'
/
&zmconv_nl
 zmconv_c0_lnd		=       0.005  
 zmconv_c0_ocn		=       0.005  
 zmconv_cape_cin		= 5       
 zmconv_dmpdz		=       -0.75e-3
 zmconv_ke		=  1.0E-6 
 zmconv_mx_bot_lyr_adj		= 1
 zmconv_tau		=  3600
 zmconv_tiedke_add		= 0.5D0   
/
