&clm_inparm
 albice = 0.60,0.40
 co2_type = 'diagnostic'
 create_crop_landunit = .false.
 dtime = 1800
 fatmlndfrc = '/lustre/atlas1/cli900/world-shared/cesm/inputdata/share/domains/domain.lnd.ne16np4_gx3v7.120406.nc'
 finidat = ' '
 fsnowaging = '/lustre/atlas1/cli900/world-shared/cesm/inputdata/lnd/clm2/snicardata/snicar_drdt_bst_fit_60_c070416.nc'
 fsnowoptics = '/lustre/atlas1/cli900/world-shared/cesm/inputdata/lnd/clm2/snicardata/snicar_optics_5bnd_mam_c140303.nc'
 fsoilordercon = '/lustre/atlas1/cli900/world-shared/cesm/inputdata/lnd/clm2/paramdata/CNP_parameters_c131108.nc'
 fsurdat = '/lustre/atlas1/cli900/world-shared/cesm/inputdata/lnd/clm2/surfdata_map/surfdata_ne16np4_simyr2000_c160108.nc'
 glc_do_dynglacier = .false.
 maxpatch_glcmec = 0
 maxpatch_pft = 17
 more_vertlayers = .false.
 nsegspc = 20
 paramfile = '/lustre/atlas1/cli900/world-shared/cesm/inputdata/lnd/clm2/paramdata/clm_params_c160822.nc'
 urban_hac = 'ON'
 urban_traffic = .false.
 use_century_decomp = .false.
 use_cn = .false.
 use_crop = .false.
 use_dynroot = .false.
 use_lai_streams = .false.
 use_lch4 = .false.
 use_nitrif_denitrif = .false.
 use_vertsoilc = .true.
/
&ndepdyn_nml
/
&pdepdyn_nml
/
&popd_streams
/
&light_streams
/
&lai_streams
 lai_mapalgo = 'bilinear'
 model_year_align_lai = 2001
 stream_fldfilename_lai = '/lustre/atlas1/cli900/world-shared/cesm/inputdata/lnd/clm2/lai_streams/MODISPFTLAI_0.5x0.5_c140711.nc'
 stream_year_first_lai = 2001
 stream_year_last_lai = 2013
/
&clm_canopyhydrology_inparm
/
&clm_soilhydrology_inparm
/
&dynamic_subgrid
/
&finidat_consistency_checks
/
&dynpft_consistency_checks
/
&clmu_inparm
/
&clm_soilstate_inparm
/
&clm_pflotran_inparm
/
&betr_inparm
/
&clm_humanindex_inparm
/
!#--------------------------------------------------------------------------------------------------------------------------
!# lnd_in:: Comment:
!# This namelist was created using the following command-line:
!#     /autofs/nccs-svm1_home1/wmacey/ACME/components/clm/bld/CLM build-namelist -infile /ccs/home/wmacey/acme_scratch/cli112/SMS_D_Ln5.ne16_ne16.FC5AV1F.titan_pgi.G.demotest1/Buildconf/clmconf/namelist -csmdata /lustre/atlas1/cli900/world-shared/cesm/inputdata -inputdata /ccs/home/wmacey/acme_scratch/cli112/SMS_D_Ln5.ne16_ne16.FC5AV1F.titan_pgi.G.demotest1/Buildconf/clm.input_data_list -ignore_ic_year -namelist  &clm_inparm  start_ymd=00010101
!#   / -use_case 2000_control -res ne16np4 -clm_start_type default -envxml_dir /ccs/home/wmacey/acme_scratch/cli112/SMS_D_Ln5.ne16_ne16.FC5AV1F.titan_pgi.G.demotest1 -l_ncpl 48 -lnd_frac /lustre/atlas1/cli900/world-shared/cesm/inputdata/share/domains/domain.lnd.ne16np4_gx3v7.120406.nc -glc_nec 0 -co2_ppmv 367.0 -co2_type diagnostic -config /ccs/home/wmacey/acme_scratch/cli112/SMS_D_Ln5.ne16_ne16.FC5AV1F.titan_pgi.G.demotest1/Buildconf/clmconf/config_cache.xml -bgc sp -fsnowoptics lnd/clm2/snicardata/snicar_optics_5bnd_mam_c140303.nc -mask gx3v7
!# For help on options use: /autofs/nccs-svm1_home1/wmacey/ACME/components/clm/bld/CLM build-namelist -help
!#--------------------------------------------------------------------------------------------------------------------------
