use_nitrif_denitrif = .true. 
use_century_decomp  = .true.
nu_com              = 'ECA'

